### 
### Created by X-TOOL on Mon Sep 10 21:13:02 2018
### 

@<TRIPOS>MOLECULE
2wq4_ligand
   26    26     1     0     0
SMALL
GAST_HUCK


@<TRIPOS>ATOM
      1 C1         11.7480   -7.5570   -9.6240 C.3       1 SFU         0.1160
      2 C2         13.0240   -6.8600   -9.1690 C.3       1 SFU         0.1121
      3 C3         13.3370   -5.6900  -10.1060 C.3       1 SFU         0.1117
      4 C4         12.1440   -4.7640  -10.2110 C.3       1 SFU         0.1093
      5 C5         10.8810   -5.5280  -10.6560 C.3       1 SFU         0.0848
      6 C6          9.6200   -4.6880  -10.7040 C.3       1 SFU        -0.0361
      7 O2         14.1220   -7.7870   -9.1560 O.3       1 SFU        -0.3865
      8 O3         14.5130   -5.0360   -9.6470 O.3       1 SFU        -0.3865
      9 O4         11.9140   -4.1960   -8.9070 O.3       1 SFU        -0.3866
     10 O5         10.6480   -6.6350   -9.7410 O.3       1 SFU        -0.3657
     11 CM         10.2190   -9.1280  -11.4780 C.3       1 SFU        -0.0681
     12 SE         12.0730   -8.5680  -11.3060 Se        1 SFU        -4.0000
     13 H          11.4588   -8.2762   -8.8577 H         1 SFU         0.0650
     14 H          12.8772   -6.4803   -8.1579 H         1 SFU         0.0647
     15 H          13.5301   -6.0493  -11.1168 H         1 SFU         0.0647
     16 H          12.3504   -3.9926  -10.9529 H         1 SFU         0.0646
     17 H          11.0797   -5.8602  -11.6749 H         1 SFU         0.0620
     18 H           8.7901   -5.3006  -11.0563 H         1 SFU         0.0255
     19 H           9.3973   -4.3118   -9.7055 H         1 SFU         0.0255
     20 H           9.7691   -3.8497  -11.3846 H         1 SFU         0.0255
     21 H          13.9167   -8.5163   -8.5664 H         1 SFU         0.2100
     22 H          14.3531   -4.6672   -8.7751 H         1 SFU         0.2100
     23 H          11.1683   -3.5929   -8.9489 H         1 SFU         0.2100
     24 H           9.9347   -9.7125  -10.6030 H         1 SFU         0.0227
     25 H           9.5803   -8.2478  -11.5518 H         1 SFU         0.0227
     26 H          10.1063   -9.7365  -12.3753 H         1 SFU         0.0227
@<TRIPOS>BOND
     1    1    2 1  
     2    1   10 1  
     3    1   12 1  
     4    2    3 1  
     5    2    7 1  
     6    3    4 1  
     7    3    8 1  
     8    4    5 1  
     9    4    9 1  
    10    5    6 1  
    11    5   10 1  
    12   12   11 1  
    13    1   13 1  
    14    2   14 1  
    15    3   15 1  
    16    4   16 1  
    17    5   17 1  
    18    6   18 1  
    19    6   19 1  
    20    6   20 1  
    21    7   21 1  
    22    8   22 1  
    23    9   23 1  
    24   11   24 1  
    25   11   25 1  
    26   11   26 1  
@<TRIPOS>SUBSTRUCTURE
     1 SFU         1

