### 
### Created by X-TOOL on Mon Sep 10 21:13:07 2018
### 

@<TRIPOS>MOLECULE
2ydm_ligand
   25    25     1     0     0
SMALL
GAST_HUCK


@<TRIPOS>ATOM
      1 C4         12.9620   -8.3170  -21.7140 C.2       1 SLC         0.2097
      2 O1         11.8620   -8.6530  -21.3290 O.2       1 SLC        -0.3827
      3 C2         13.9790   -8.1970  -20.6680 C.2       1 SLC         0.0259
      4 C3         15.2600   -8.2290  -20.9450 C.2       1 SLC        -0.0893
      5 C1         13.5610   -8.1020  -19.2200 C.3       1 SLC        -0.0004
      6 SE         13.7880   -6.2380  -18.6610 Se        1 SLC        -5.0000
      7 N          13.2500   -8.1130  -23.0170 N.am      1 SLC        -0.2563
      8 C8         12.3260   -8.2580  -23.9570 C.3       1 SLC         0.0967
      9 C9         11.4960   -9.3140  -24.0970 C.2       1 SLC         0.0602
     10 O3         10.6740   -9.3950  -25.0330 O.co2     1 SLC        -0.5666
     11 C7         12.5120   -7.1560  -24.9390 C.3       1 SLC        -0.0159
     12 C6         14.0340   -7.0490  -24.9080 C.3       1 SLC        -0.0288
     13 C5         14.5170   -7.6820  -23.5970 C.3       1 SLC         0.0356
     14 O2         11.4890  -10.2190  -23.2480 O.co2     1 SLC        -0.5666
     15 H          15.9930   -8.1873  -20.1394 H         1 SLC         0.0455
     16 H          15.5920   -8.2973  -21.9809 H         1 SLC         0.0455
     17 H          14.1717   -8.7615  -18.6034 H         1 SLC         0.0458
     18 H          12.5223   -8.4110  -19.1025 H         1 SLC         0.0458
     19 H          11.3218   -8.5880  -23.6911 H         1 SLC         0.0728
     20 H          11.9849   -6.2337  -24.6947 H         1 SLC         0.0306
     21 H          12.0883   -7.3473  -25.9249 H         1 SLC         0.0306
     22 H          14.3429   -6.0051  -24.9625 H         1 SLC         0.0286
     23 H          14.4690   -7.5666  -25.7630 H         1 SLC         0.0286
     24 H          15.2377   -8.4881  -23.7342 H         1 SLC         0.0523
     25 H          15.0864   -7.0036  -22.9616 H         1 SLC         0.0523
@<TRIPOS>BOND
     1    1    2 2  
     2    1    3 1  
     3    1    7 am 
     4    3    4 2  
     5    3    5 1  
     6    5    6 1  
     7    7    8 1  
     8    7   13 1  
     9    8    9 1  
    10    8   11 1  
    11    9   10 ar 
    12    9   14 ar 
    13   11   12 1  
    14   12   13 1  
    15    4   15 1  
    16    4   16 1  
    17    5   17 1  
    18    5   18 1  
    19    8   19 1  
    20   11   20 1  
    21   11   21 1  
    22   12   22 1  
    23   12   23 1  
    24   13   24 1  
    25   13   25 1  
@<TRIPOS>SUBSTRUCTURE
     1 SLC         1

