### 
### Created by X-TOOL on Mon Sep 10 21:12:57 2018
### 

@<TRIPOS>MOLECULE
3bwf_ligand
   48    58     1     0     0
SMALL
GAST_HUCK


@<TRIPOS>ATOM
      1 O9         21.4310  -40.5260    0.7200 O.2       1 DWC        -0.3725
      2 C1         20.6120  -39.5920    0.8160 C.2       1 DWC         0.2295
      3 C2         20.0610  -38.8480   -0.2140 C.ar      1 DWC         0.0725
      4 C3         20.2310  -38.9350   -1.6280 C.ar      1 DWC         0.0199
      5 C4         21.0640  -39.8200   -2.3450 C.ar      1 DWC        -0.0364
      6 C5         21.1200  -39.7620   -3.7560 C.ar      1 DWC        -0.0338
      7 C6         20.3350  -38.8340   -4.4700 C.ar      1 DWC         0.0094
      8 C7         19.5040  -38.0470   -2.4090 C.ar      1 DWC         0.0820
      9 N21        19.5510  -37.9580   -3.8030 N.ar      1 DWC        -0.2927
     10 C22        18.6490  -37.1450   -1.7840 C.ar      1 DWC         0.0998
     11 N19        17.9390  -36.2710   -2.5450 N.pl3     1 DWC        -0.2706
     12 C17        16.0570  -36.6120   -4.9800 C.2       1 DWC        -0.0758
     13 C16        16.6390  -37.8660   -5.4010 C.2       1 DWC        -0.0913
     14 C14        17.5770  -37.5910   -6.4560 C.2       1 DWC        -0.0913
     15 C13        17.5730  -36.1750   -6.6770 C.2       1 DWC        -0.0758
     16 C12        16.6410  -35.5700   -5.7680 C.3       1 DWC        -0.0028
     17 C10        19.5000  -35.1790   -4.7110 C.2       1 DWC         0.0939
     18 O11        20.2600  -34.3710   -4.7880 O.2       1 DWC        -0.3565
     19 N20        20.1150  -39.1530    2.0310 N.am      1 DWC        -0.2004
     20 C31        19.2320  -38.1350    1.7810 C.2       1 DWC         0.2371
     21 O8         18.6390  -37.5500    2.6790 O.2       1 DWC        -0.3649
     22 C30        19.1720  -37.9140    0.4020 C.ar      1 DWC         0.0695
     23 C29        18.4460  -37.0060   -0.4170 C.ar      1 DWC         0.0219
     24 C28        17.5270  -35.9680   -0.2910 C.ar      1 DWC        -0.0077
     25 C23        17.2140  -35.5450   -1.6100 C.ar      1 DWC         0.0612
     26 C24        16.2820  -34.5310   -1.8350 C.ar      1 DWC        -0.0444
     27 C25        15.7040  -33.8940   -0.7380 C.ar      1 DWC        -0.0415
     28 C26        15.9880  -34.2990    0.5890 C.ar      1 DWC         0.0750
     29 O15        15.3620  -33.6850    1.6440 O.3       1 DWC        -0.3405
     30 C27        16.8970  -35.3650    0.8120 C.ar      1 DWC        -0.0396
     31 OS         18.2330  -36.5540   -4.6190 Os        1 DWC         8.0000
     32 H1         21.6639  -40.5479   -1.8109 H         1 DWC         0.0748
     33 H2         21.7736  -40.4383   -4.2950 H         1 DWC         0.0694
     34 H3         20.3601  -38.8229   -5.5537 H         1 DWC         0.0841
     35 H4         17.9389  -36.1712   -3.5702 H         1 DWC         0.2203
     36 H5         15.3069  -36.4829   -4.2011 H         1 DWC         0.0583
     37 H6         16.4077  -38.8480   -4.9909 H         1 DWC         0.0394
     38 H7         18.1799  -38.3245   -6.9893 H         1 DWC         0.0394
     39 H8         18.1769  -35.6457   -7.4126 H         1 DWC         0.0583
     40 H9         17.1651  -34.8565   -5.1151 H         1 DWC         0.0707
     41 H10        15.8569  -35.0435   -6.3319 H         1 DWC         0.0707
     42 H11        18.5975  -35.0232   -4.1219 H         1 DWC         0.1313
     43 H12        19.6582  -36.1261   -5.2247 H         1 DWC         0.1313
     44 H13        20.3572  -39.5144    2.9314 H         1 DWC         0.2209
     45 H14        16.0123  -34.2438   -2.8449 H         1 DWC         0.0530
     46 H15        15.0209  -33.0690   -0.9047 H         1 DWC         0.0516
     47 H16        15.6624  -34.0721    2.4579 H         1 DWC         0.2445
     48 H17        17.1031  -35.7099    1.8188 H         1 DWC         0.0486
@<TRIPOS>BOND
     1    2    1 2  
     2    3    2 1  
     3    2   19 am 
     4    4    3 ar 
     5   22    3 ar 
     6    4    5 ar 
     7    8    4 ar 
     8    6    5 ar 
     9    7    6 ar 
    10    9    7 ar 
    11    9    8 ar 
    12   10    8 ar 
    13   11   10 1  
    14   10   23 ar 
    15   11   25 1  
    16   13   12 2  
    17   16   12 1  
    18   14   13 1  
    19   15   14 2  
    20   16   15 1  
    21   17   18 2  
    22   20   19 am 
    23   20   21 2  
    24   22   20 1  
    25   23   22 ar 
    26   24   23 1  
    27   25   24 ar 
    28   24   30 ar 
    29   25   26 ar 
    30   26   27 ar 
    31   27   28 ar 
    32   28   29 1  
    33   30   28 ar 
    34   31    9 1  
    35   31   11 1  
    36   31   12 1  
    37   31   13 1  
    38   31   14 1  
    39   31   15 1  
    40   31   16 1  
    41   31   17 1  
    42    5   32 1  
    43    6   33 1  
    44    7   34 1  
    45   11   35 1  
    46   12   36 1  
    47   13   37 1  
    48   14   38 1  
    49   15   39 1  
    50   16   40 1  
    51   16   41 1  
    52   17   42 1  
    53   17   43 1  
    54   19   44 1  
    55   26   45 1  
    56   27   46 1  
    57   29   47 1  
    58   30   48 1  
@<TRIPOS>SUBSTRUCTURE
     1 DWC         1

