### 
### Created by X-TOOL on Mon Sep 10 21:13:01 2018
### 

@<TRIPOS>MOLECULE
3fy0_ligand
   48    58     1     0     0
SMALL
GAST_HUCK


@<TRIPOS>ATOM
      1 O11        12.5860   13.0960   42.0650 O.2       1 DW1        -0.3565
      2 C10        12.6600   14.2400   42.0940 C.2       1 DW1         0.0939
      3 C12        12.1650   16.7620   40.1080 C.2       1 DW1        -0.0758
      4 C13        13.3860   16.0790   39.9570 C.2       1 DW1        -0.0913
      5 C14        14.3760   16.7960   40.6300 C.2       1 DW1        -0.0913
      6 C16        13.7770   17.9280   41.1820 C.2       1 DW1        -0.0758
      7 C17        12.4130   17.9110   40.8630 C.3       1 DW1        -0.0028
      8 N20        14.2800   15.9960   43.6830 N.ar      1 DW1        -0.2927
      9 C6         15.6300   15.8590   43.6300 C.ar      1 DW1         0.0094
     10 C5         16.3650   15.8230   44.8330 C.ar      1 DW1        -0.0338
     11 C4         15.7510   15.9270   46.1010 C.ar      1 DW1        -0.0364
     12 N18        11.6370   16.2580   43.8080 N.pl3     1 DW1        -0.2706
     13 C22        10.3790   16.4060   44.0730 C.ar      1 DW1         0.0612
     14 C27        10.1790   16.4780   45.4600 C.ar      1 DW1        -0.0077
     15 C26         8.9030   16.6340   46.0140 C.ar      1 DW1        -0.0396
     16 C25         7.7840   16.7200   45.1560 C.ar      1 DW1         0.0750
     17 C24         7.9860   16.6490   43.7600 C.ar      1 DW1        -0.0415
     18 C23         9.2740   16.4930   43.2140 C.ar      1 DW1        -0.0444
     19 O15         6.5040   16.8590   45.6190 O.3       1 DW1        -0.3405
     20 C28        11.5070   16.3620   46.0210 C.ar      1 DW1         0.0219
     21 C21        12.3030   16.2460   44.9020 C.ar      1 DW1         0.0998
     22 C7         13.6780   16.1040   44.9260 C.ar      1 DW1         0.0820
     23 C3         14.3560   16.0730   46.1610 C.ar      1 DW1         0.0199
     24 C29        12.1510   16.3420   47.2720 C.ar      1 DW1         0.0695
     25 C2         13.5590   16.2030   47.3330 C.ar      1 DW1         0.0725
     26 C30        11.6840   16.4370   48.5900 C.2       1 DW1         0.2371
     27 O8         10.5400   16.5620   48.9650 O.2       1 DW1        -0.3649
     28 N19        12.7350   16.3640   49.4550 N.am      1 DW1        -0.2004
     29 C1         13.8760   16.2200   48.6990 C.2       1 DW1         0.2295
     30 O9         14.9720   16.1240   49.1940 O.2       1 DW1        -0.3725
     31 RU         12.8590   16.0870   42.0660 Ru        1 DW1         8.0000
     32 H1         11.7558   14.8425   42.1670 H         1 DW1         0.1313
     33 H2         13.6345   14.7239   42.0485 H         1 DW1         0.1313
     34 H3         11.2008   16.4511   39.7085 H         1 DW1         0.0583
     35 H4         13.5331   15.1497   39.4086 H         1 DW1         0.0394
     36 H5         15.4267   16.5212   40.7098 H         1 DW1         0.0394
     37 H6         14.2845   18.6963   41.7635 H         1 DW1         0.0583
     38 H7         11.8134   17.8895   41.7850 H         1 DW1         0.0707
     39 H8         12.1544   18.8060   40.2782 H         1 DW1         0.0707
     40 H9         16.1363   15.7783   42.6749 H         1 DW1         0.0841
     41 H10        17.4421   15.7113   44.7828 H         1 DW1         0.0694
     42 H11        16.3440   15.8948   47.0078 H         1 DW1         0.0748
     43 H12        12.0398   16.1645   42.8646 H         1 DW1         0.2203
     44 H13         8.7750   16.6882   47.0891 H         1 DW1         0.0486
     45 H14         7.1320   16.7160   43.0957 H         1 DW1         0.0516
     46 H15         9.4104   16.4406   42.1399 H         1 DW1         0.0530
     47 H16         6.5138   16.8933   46.5683 H         1 DW1         0.2445
     48 H17        12.6861   16.4071   50.4529 H         1 DW1         0.2209
@<TRIPOS>BOND
     1    2    1 2  
     2    4    3 2  
     3    7    3 1  
     4    5    4 1  
     5    6    5 2  
     6    7    6 1  
     7    8    9 ar 
     8    8   22 ar 
     9    9   10 ar 
    10   10   11 ar 
    11   23   11 ar 
    12   12   13 1  
    13   21   12 1  
    14   14   13 ar 
    15   13   18 ar 
    16   14   15 ar 
    17   20   14 1  
    18   15   16 ar 
    19   16   17 ar 
    20   16   19 1  
    21   18   17 ar 
    22   21   20 ar 
    23   20   24 ar 
    24   22   21 ar 
    25   22   23 ar 
    26   23   25 ar 
    27   25   24 ar 
    28   24   26 1  
    29   25   29 1  
    30   26   27 2  
    31   28   26 am 
    32   29   28 am 
    33   29   30 2  
    34   31    2 1  
    35   31    3 1  
    36   31    4 1  
    37   31    5 1  
    38   31    6 1  
    39   31    7 1  
    40   31    8 1  
    41   31   12 1  
    42    2   32 1  
    43    2   33 1  
    44    3   34 1  
    45    4   35 1  
    46    5   36 1  
    47    6   37 1  
    48    7   38 1  
    49    7   39 1  
    50    9   40 1  
    51   10   41 1  
    52   11   42 1  
    53   12   43 1  
    54   15   44 1  
    55   17   45 1  
    56   18   46 1  
    57   19   47 1  
    58   28   48 1  
@<TRIPOS>SUBSTRUCTURE
     1 DW1         1

