### 
### Created by X-TOOL on Mon Sep 10 21:13:02 2018
### 

@<TRIPOS>MOLECULE
3m1s_ligand
   41    51     1     0     0
SMALL
GAST_HUCK


@<TRIPOS>ATOM
      1 O11        42.6720   79.6840   30.1730 O.2       1 DW1        -0.7149
      2 C10        43.6010   80.0090   30.7560 C.2       1 DW1        -0.2279
      3 C12        45.5520   82.4750   30.8590 C.2       1 DW1        -0.7915
      4 C13        46.0240   81.4430   30.0160 C.2       1 DW1        -0.9707
      5 C14        46.9990   80.7230   30.7110 C.2       1 DW1        -0.9707
      6 C16        47.1400   81.3190   31.9730 C.2       1 DW1        -0.7915
      7 C17        46.2530   82.4000   32.0710 C.3       1 DW1        -0.4315
      8 N20        45.4500   78.5910   32.5090 N.ar      1 DW1        -0.3711
      9 C6         46.1920   77.6250   31.9590 C.ar      1 DW1        -0.0600
     10 C5         46.3950   76.4150   32.6290 C.ar      1 DW1        -0.0945
     11 C4         45.8080   76.2460   33.8810 C.ar      1 DW1        -0.0948
     12 N18        43.9740   80.6570   33.5550 N.pl3     1 DW1        -0.1619
     13 C22        43.2040   81.4500   34.3420 C.ar      1 DW1         0.0832
     14 C27        42.8980   80.7510   35.5150 C.ar      1 DW1        -0.0179
     15 C26        42.1260   81.3290   36.5250 C.ar      1 DW1        -0.0425
     16 C25        41.6420   82.6180   36.3090 C.ar      1 DW1         0.0726
     17 C24        41.9780   83.2830   35.1230 C.ar      1 DW1        -0.0441
     18 C23        42.7610   82.7150   34.1170 C.ar      1 DW1        -0.0455
     19 O15        40.8550   83.2010   37.2580 O.3       1 DW1        -0.3418
     20 C28        43.5090   79.5030   35.4230 C.ar      1 DW1        -0.0238
     21 C21        44.1580   79.4790   34.2200 C.ar      1 DW1         0.0858
     22 C7         44.8970   78.4320   33.7260 C.ar      1 DW1         0.0154
     23 C3         45.0370   77.2710   34.4460 C.ar      1 DW1        -0.0501
     24 C29        43.6340   78.3430   36.1860 C.ar      1 DW1         0.0048
     25 C2         44.3890   77.2570   35.6880 C.ar      1 DW1         0.0027
     26 C30        43.1420   77.9460   37.4430 C.2       1 DW1         0.1932
     27 O8         42.4310   78.6290   38.1740 O.2       1 DW1        -0.3971
     28 N19        43.5520   76.6670   37.7710 N.am      1 DW1        -0.2193
     29 C1         44.3060   76.2950   36.6820 C.2       1 DW1         0.1805
     30 O9         44.8270   75.2170   36.6500 O.2       1 DW1        -0.4089
     31 RU         45.0650   80.5500   31.7320 Ru        1 DW1         8.0000
     32 H          44.2486   79.6322   29.9644 H         1 DW1        -0.0573
     33 H          46.4791   83.2730   32.6833 H         1 DW1        -0.0442
     34 H          46.6429   77.7821   30.9792 H         1 DW1         0.0479
     35 H          46.9974   75.6236   32.1830 H         1 DW1         0.0477
     36 H          45.9491   75.3116   34.4241 H         1 DW1         0.0284
     37 H          41.9099   80.7917   37.4484 H         1 DW1         0.0476
     38 H          41.6083   84.2981   34.9780 H         1 DW1         0.0507
     39 H          43.0036   83.2556   33.2021 H         1 DW1         0.0509
     40 H          40.7379   82.5937   37.9922 H         1 DW1         0.2439
     41 H          43.3460   76.1307   38.6138 H         1 DW1         0.2178
@<TRIPOS>BOND
     1    2    1 2  
     2    4    3 2  
     3    7    3 1  
     4    5    4 1  
     5    6    5 2  
     6    7    6 1  
     7    8    9 ar 
     8    8   22 ar 
     9    9   10 ar 
    10   10   11 ar 
    11   23   11 ar 
    12   12   13 1  
    13   21   12 1  
    14   14   13 ar 
    15   13   18 ar 
    16   14   15 ar 
    17   20   14 1  
    18   15   16 ar 
    19   16   17 ar 
    20   16   19 1  
    21   18   17 ar 
    22   21   20 ar 
    23   20   24 ar 
    24   22   21 ar 
    25   22   23 ar 
    26   23   25 ar 
    27   25   24 ar 
    28   24   26 1  
    29   25   29 1  
    30   26   27 2  
    31   28   26 am 
    32   29   28 am 
    33   29   30 2  
    34   31    2 1  
    35   31    3 1  
    36   31    4 1  
    37   31    5 1  
    38   31    6 1  
    39   31    7 1  
    40   31    8 1  
    41   31   12 1  
    42    2   32 1  
    43    7   33 1  
    44    9   34 1  
    45   10   35 1  
    46   11   36 1  
    47   15   37 1  
    48   17   38 1  
    49   18   39 1  
    50   19   40 1  
    51   28   41 1  
@<TRIPOS>SUBSTRUCTURE
     1 DW1         1

