### 
### Created by X-TOOL on Mon Sep 10 21:13:06 2018
### 

@<TRIPOS>MOLECULE
3P3J_LIGAND
   33    43     1     0     0
SMALL
GAST_HUCK


@<TRIPOS>ATOM
      1 C1         15.1000    6.3280   15.1900 C.ar      1 498        -0.1974
      2 C2         14.9570    5.2650   16.0840 C.ar      1 498        -0.2010
      3 C3         15.4630    4.0050   15.7550 C.ar      1 498        -0.0440
      4 C4         16.1070    3.7990   14.5330 C.ar      1 498        -0.2010
      5 C5         16.2430    4.8710   13.6470 C.ar      1 498        -0.1974
      6 C6         15.7440    6.1510   13.9650 C.ar      1 498        -0.0871
      7 S7         15.2620    2.7370   16.9230 S.o2      1 498         0.0242
      8 O8         13.7670    2.6750   16.9460 O.2       1 498        -0.1585
      9 O9         15.8860    3.0470   18.2130 O.2       1 498        -0.1585
     10 N10        15.9040    1.4180   16.3490 N.am      1 498        -0.2677
     11 N11        15.8960    7.2170   13.1460 N.pl3     1 498        -0.3408
     12 C12        17.0300    7.7720   12.7240 C.2       1 498        -0.1131
     13 C13        16.6360    8.7810   11.9480 C.2       1 498        -0.1266
     14 C14        19.3200   11.2320   13.3860 C.2       1 498        -1.1497
     15 N14        15.2980    8.7650   11.9580 N.2       1 498        -0.4276
     16 C15        19.7500   11.0260   14.6350 C.2       1 498        -1.0170
     17 N15        14.9240    7.8290   12.6780 N.2       1 498        -0.3557
     18 C16        21.0360   10.6960   14.5730 C.2       1 498        -1.0170
     19 C17        21.4100   10.6890   13.2910 C.2       1 498        -1.1497
     20 C18        20.3450   11.0240   12.5590 C.3       1 498        -1.6665
     21 C19        18.3390    7.3950   13.0270 C.2       1 498        -0.4411
     22 C20        18.7730    7.1460   14.2660 C.2       1 498        -0.2791
     23 C21        20.0660    6.8330   14.2030 C.2       1 498        -0.2661
     24 C22        20.4380    6.8880   12.9200 C.2       1 498        -0.4998
     25 C23        19.3740    7.2360   12.1950 C.3       1 498        -0.8498
     26 RU1        19.8700    9.0160   13.5450 Ru        1 498         9.0000
     27 H          14.7034    7.3088   15.4525 H         1 498        -0.0417
     28 H          14.4512    5.4180   17.0374 H         1 498        -0.0269
     29 H          16.4983    2.8152   14.2738 H         1 498        -0.0269
     30 H          16.7444    4.7148   12.6918 H         1 498        -0.0417
     31 H          15.3056    0.6494   16.0464 H         1 498         0.1629
     32 H          16.9181    1.3326   16.2799 H         1 498         0.1629
     33 H          17.2767    9.4808   11.4114 H         1 498        -0.0004
@<TRIPOS>BOND
     1    1    2 ar 
     2    6    1 ar 
     3    2    3 ar 
     4    4    3 ar 
     5    3    7 1  
     6    5    4 ar 
     7    6    5 ar 
     8   11    6 1  
     9    7    8 2  
    10    7    9 2  
    11    7   10 am 
    12   12   11 1  
    13   11   17 1  
    14   12   13 2  
    15   21   12 1  
    16   13   15 1  
    17   16   14 2  
    18   20   14 1  
    19   15   17 2  
    20   18   16 1  
    21   19   18 2  
    22   20   19 1  
    23   22   21 2  
    24   21   25 1  
    25   22   23 1  
    26   23   24 2  
    27   24   25 1  
    28   26   14 1  
    29   26   16 1  
    30   26   18 1  
    31   26   19 1  
    32   26   20 1  
    33   26   22 1  
    34   26   23 1  
    35   26   24 1  
    36   26   25 1  
    37    1   27 1  
    38    2   28 1  
    39    4   29 1  
    40    5   30 1  
    41   10   31 1  
    42   10   32 1  
    43   13   33 1  
@<TRIPOS>SUBSTRUCTURE
     1 498         1

