### 
### Created by X-TOOL on Mon Sep 10 21:13:06 2018
### 

@<TRIPOS>MOLECULE
3p44_ligand
   33    43     1     0     0
SMALL
GAST_HUCK


@<TRIPOS>ATOM
      1 NAA        17.3150    8.5670   12.2170 N.2       1 067        -0.4387
      2 NAB        16.7120    7.7070   12.8610 N.2       1 067        -0.3663
      3 CAC        17.8710    5.0970   14.7890 C.ar      1 067        -0.2234
      4 CAD        17.4060    4.0510   15.5790 C.ar      1 067        -0.2254
      5 OAE        13.9940    2.7550   17.0240 O.2       1 067        -0.1614
      6 CAF        18.5770    8.5090   12.6240 C.2       1 067        -0.1719
      7 NAG        17.4590    7.1090   13.6400 N.pl3     1 067        -0.3708
      8 CAH        17.0120    6.1200   14.4080 C.ar      1 067        -0.1183
      9 CAI        16.0770    4.0270   15.9850 C.ar      1 067        -0.0707
     10 SAJ        15.4920    2.7100   16.9770 S.o2      1 067         0.0132
     11 NAK        15.9730    1.2920   16.3350 N.am      1 067        -0.2700
     12 CAL        18.7020    7.5770   13.5590 C.2       1 067        -0.1015
     13 CAM        15.6850    6.1000   14.8220 C.ar      1 067        -0.2234
     14 CAN        15.2180    5.0530   15.6090 C.ar      1 067        -0.2254
     15 OAO        16.0360    2.8430   18.3680 O.2       1 067        -0.1614
     16 CAP        19.5710    9.2490   12.1390 C.2       1 067        -0.3925
     17 CAQ        20.8660    9.0870   12.3960 C.2       1 067        -0.2214
     18 CAR        21.5410    9.9850   11.6830 C.2       1 067        -0.2233
     19 CAS        20.6640   10.7020   10.9870 C.2       1 067        -0.4430
     20 CAT        19.4460   10.2480   11.2690 C.3       1 067        -0.7260
     21 CAU        19.3000   11.8430   15.1500 C.2       1 067        -1.1497
     22 CAV        19.1780   12.8410   14.2800 C.2       1 067        -1.0170
     23 CAW        20.3980   13.2920   14.0010 C.2       1 067        -1.0170
     24 CAX        21.2730   12.5730   14.6980 C.2       1 067        -1.1497
     25 CAY        20.5940   11.6760   15.4080 C.3       1 067        -1.6665
     26 RU         20.2830   11.1500   13.2000 Ru        1 067         9.0000
     27 H          18.9125    5.1141   14.4679 H         1 067        -0.0522
     28 H          18.0829    3.2512   15.8793 H         1 067        -0.0350
     29 H          15.2797    0.6043   16.0403 H         1 067         0.1626
     30 H          16.9674    1.0919   16.2278 H         1 067         0.1626
     31 H          19.5893    7.2740   14.1148 H         1 067        -0.0295
     32 H          15.0107    6.9050   14.5297 H         1 067        -0.0522
     33 H          14.1769    5.0369   15.9315 H         1 067        -0.0350
@<TRIPOS>BOND
     1    1    2 2  
     2    6    1 1  
     3    7    2 1  
     4    3    4 ar 
     5    8    3 ar 
     6    4    9 ar 
     7   10    5 2  
     8    6   12 2  
     9   16    6 1  
    10    7    8 1  
    11   12    7 1  
    12    8   13 ar 
    13    9   10 1  
    14   14    9 ar 
    15   10   11 am 
    16   10   15 2  
    17   13   14 ar 
    18   17   16 2  
    19   20   16 1  
    20   18   17 1  
    21   19   18 2  
    22   20   19 1  
    23   21   22 2  
    24   21   25 1  
    25   22   23 1  
    26   24   23 2  
    27   25   24 1  
    28   26   17 1  
    29   26   18 1  
    30   26   19 1  
    31   26   20 1  
    32   26   21 1  
    33   26   22 1  
    34   26   23 1  
    35   26   24 1  
    36   26   25 1  
    37    3   27 1  
    38    4   28 1  
    39   11   29 1  
    40   11   30 1  
    41   12   31 1  
    42   13   32 1  
    43   14   33 1  
@<TRIPOS>SUBSTRUCTURE
     1 067         1

