### 
### Created by X-TOOL on Mon Sep 10 21:13:07 2018
### 

@<TRIPOS>MOLECULE
3q4c_ligand
   44    54     1     0     0
SMALL
GAST_HUCK


@<TRIPOS>ATOM
      1 O         -20.3540   12.1760   -0.1010 O.2       1 RSW        -0.3993
      2 CL        -13.0590    9.8510   -1.6000 Cl        1 RSW        -1.0000
      3 C1        -16.0220   10.9670    0.3480 C.ar      1 RSW         0.0865
      4 N2        -14.9000   11.7210    0.0210 N.pl3     1 RSW        -0.1555
      5 O2        -20.0580    7.9660    1.6330 O.2       1 RSW        -0.4097
      6 C3        -15.4080   12.9740   -0.4950 C.ar      1 RSW         0.0927
      7 O3        -10.1500    8.3500    1.2960 O.co2     1 RSW        -0.6635
      8 C4        -14.7250   14.1570   -1.0000 C.ar      1 RSW        -0.0395
      9 O4         -9.3480    9.8100   -0.1180 O.co2     1 RSW        -0.6635
     10 C5        -15.5360   15.2670   -1.4510 C.ar      1 RSW        -0.0747
     11 C6        -16.9780   15.2100   -1.4040 C.ar      1 RSW        -0.0766
     12 C7        -17.6640   14.0290   -0.9010 C.ar      1 RSW        -0.0703
     13 C8        -16.8710   12.9070   -0.4460 C.ar      1 RSW        -0.0103
     14 C9        -17.2590   11.6310    0.0880 C.ar      1 RSW        -0.0231
     15 C10       -18.4620   10.8120    0.4410 C.ar      1 RSW         0.0016
     16 C11       -19.8440   11.0860    0.3430 C.2       1 RSW         0.1904
     17 N12       -20.5970   10.0450    0.7810 N.am      1 RSW        -0.2202
     18 C13       -19.6970    9.1040    1.1600 C.2       1 RSW         0.1791
     19 C14       -18.3540    9.4820    0.9880 C.ar      1 RSW        -0.0008
     20 C15       -17.0410    8.8480    1.2360 C.ar      1 RSW        -0.0547
     21 C16       -16.7520    7.5300    1.7760 C.ar      1 RSW        -0.0914
     22 C17       -15.3760    7.0940    1.9370 C.ar      1 RSW        -0.0762
     23 C18       -14.2660    7.9450    1.5710 C.ar      1 RSW        -0.0575
     24 N19       -14.5260    9.2510    1.0420 N.ar      1 RSW        -0.3757
     25 C20       -15.8590    9.6570    0.8880 C.ar      1 RSW         0.0125
     26 C21       -15.0940    5.7310    2.4940 C.3       1 RSW        -0.0397
     27 C22       -11.3770   10.3930    1.2350 C.ar      1 RSW        -0.5667
     28 C23       -11.4920   11.6880    0.6580 C.ar      1 RSW        -0.7591
     29 C24       -12.5130   12.5520    1.0420 C.ar      1 RSW        -0.8027
     30 C25       -13.4610   12.1470    2.0160 C.ar      1 RSW        -0.8016
     31 C26       -13.3600   10.8920    2.6070 C.ar      1 RSW        -0.8027
     32 C27       -12.3290   10.0060    2.2170 C.ar      1 RSW        -0.7591
     33 C28       -10.2680    9.4700    0.8090 C.2       1 RSW        -0.1810
     34 RU        -13.3560   10.6710    0.4310 Ru        1 RSW         8.0000
     35 H         -13.6367   14.2047   -1.0370 H         1 RSW         0.0528
     36 H         -15.0489   16.1638   -1.8337 H         1 RSW         0.0563
     37 H         -17.5610   16.0635   -1.7501 H         1 RSW         0.0506
     38 H         -18.7528   13.9903   -0.8676 H         1 RSW         0.0565
     39 H         -21.6145    9.9840    0.8171 H         1 RSW         0.2177
     40 H         -17.5694    6.8675    2.0607 H         1 RSW         0.0242
     41 H         -13.2409    7.5963    1.6963 H         1 RSW         0.0413
     42 H         -15.5197    5.6535    3.4944 H         1 RSW         0.0377
     43 H         -15.5417    4.9760    1.8477 H         1 RSW         0.0377
     44 H         -14.0162    5.5759    2.5434 H         1 RSW         0.0377
@<TRIPOS>BOND
     1   16    1 2  
     2    4    3 1  
     3    3   14 ar 
     4   25    3 ar 
     5    4    6 1  
     6   18    5 2  
     7    6    8 ar 
     8    6   13 ar 
     9   33    7 ar 
    10    8   10 ar 
    11   33    9 ar 
    12   10   11 ar 
    13   12   11 ar 
    14   13   12 ar 
    15   13   14 1  
    16   14   15 ar 
    17   15   16 1  
    18   19   15 ar 
    19   16   17 am 
    20   18   17 am 
    21   19   18 1  
    22   20   19 ar 
    23   20   21 ar 
    24   25   20 ar 
    25   22   21 ar 
    26   23   22 ar 
    27   22   26 1  
    28   24   23 ar 
    29   24   25 ar 
    30   28   27 ar 
    31   27   32 ar 
    32   27   33 1  
    33   28   29 ar 
    34   29   30 ar 
    35   30   31 ar 
    36   32   31 ar 
    37   34    2 1  
    38   34    4 1  
    39   34   24 1  
    40   34   28 1  
    41   34   29 1  
    42   34   30 1  
    43   34   31 1  
    44   34   32 1  
    45    8   35 1  
    46   10   36 1  
    47   11   37 1  
    48   12   38 1  
    49   17   39 1  
    50   21   40 1  
    51   23   41 1  
    52   26   42 1  
    53   26   43 1  
    54   26   44 1  
@<TRIPOS>SUBSTRUCTURE
     1 RSW         1

