### 
### Created by X-TOOL on Mon Sep 10 21:13:13 2018
### 

@<TRIPOS>MOLECULE
4i60_ligand
   52    62     1     0     0
SMALL
GAST_HUCK


@<TRIPOS>ATOM
      1 N1         40.5500   30.5530    9.4110 N.am      1 B1R        -0.2671
      2 S1         41.9570   30.5290    6.2870 S.3       1 B1R        -0.1527
      3 C2         42.5280   29.0490    7.0250 C.3       1 B1R         0.0302
      4 N2         42.4530   29.5050    9.4400 N.am      1 B1R        -0.2668
      5 C3         41.7310   30.4590    9.9850 C.2       1 B1R         0.2580
      6 O3         42.1290   31.2110   10.8620 O.2       1 B1R        -0.4008
      7 C4         41.7620   28.8680    8.3230 C.3       1 B1R         0.0775
      8 C5         40.4270   29.6660    8.2740 C.3       1 B1R         0.0750
      9 C6         40.3590   30.4810    7.0160 C.3       1 B1R         0.0190
     10 C7         44.0540   29.1490    7.2520 C.3       1 B1R        -0.0388
     11 C8         44.8030   27.9270    6.6890 C.3       1 B1R        -0.0500
     12 C9         45.0160   28.0200    5.1690 C.3       1 B1R        -0.0381
     13 C10        46.3470   27.3550    4.7280 C.3       1 B1R         0.0200
     14 C11        46.1420   25.8600    4.4220 C.2       1 B1R         0.1234
     15 O12        45.6760   25.1460    5.2710 O.2       1 B1R        -0.3870
     16 C14        47.2490   23.5890    1.7090 C.2       1 B1R        -0.0775
     17 C15        46.8770   24.6720    1.0040 C.2       1 B1R        -0.0653
     18 C16        46.4770   25.6520    1.7140 C.3       1 B1R         0.0144
     19 C17        46.7790   25.2400    3.1140 C.2       1 B1R         0.0157
     20 C18        47.2360   23.9580    2.9810 C.2       1 B1R        -0.0679
     21 C19        43.5880   23.5630    3.2930 C.2       1 B1R        -0.0758
     22 C20        43.8820   22.4940    2.5620 C.2       1 B1R        -0.0913
     23 C21        43.8740   22.7400    1.2920 C.2       1 B1R        -0.0913
     24 C22        43.4190   24.0570    1.1970 C.2       1 B1R        -0.0758
     25 C23        43.2260   24.4480    2.4030 C.3       1 B1R        -0.0028
     26 RU1        45.2530   24.0100    2.1650 Rh        1 B1R         9.0000
     27 H1         39.8236   31.1650    9.7237 H         1 B1R         0.1849
     28 H2         42.3225   28.1965    6.3609 H         1 B1R         0.0435
     29 H3         43.3668   29.2465    9.7533 H         1 B1R         0.1849
     30 H4         41.5911   27.7978    8.5112 H         1 B1R         0.0587
     31 H5         39.5505   29.0064    8.3558 H         1 B1R         0.0584
     32 H6         39.6465   30.0211    6.3154 H         1 B1R         0.0399
     33 H7         40.0305   31.5033    7.2549 H         1 B1R         0.0399
     34 H8         44.2485   29.2177    8.3325 H         1 B1R         0.0277
     35 H9         44.4284   30.0554    6.7537 H         1 B1R         0.0277
     36 H10        44.2181   27.0218    6.9091 H         1 B1R         0.0267
     37 H11        45.7850   27.8574    7.1798 H         1 B1R         0.0267
     38 H12        45.0348   29.0804    4.8770 H         1 B1R         0.0289
     39 H13        44.1811   27.5146    4.6616 H         1 B1R         0.0289
     40 H14        47.0860   27.4587    5.5362 H         1 B1R         0.0480
     41 H15        46.7190   27.8594    3.8240 H         1 B1R         0.0480
     42 H16        47.5083   22.6078    1.3142 H         1 B1R         0.0431
     43 H17        46.9144   24.7087   -0.0837 H         1 B1R         0.0680
     44 H18        45.3974   25.8151    1.5802 H         1 B1R         0.0719
     45 H19        47.0220   26.5709    1.4522 H         1 B1R         0.0719
     46 H20        47.5477   23.3249    3.8104 H         1 B1R         0.0513
     47 H21        43.6370   23.6750    4.3751 H         1 B1R         0.0583
     48 H22        44.1056   21.5161    2.9858 H         1 B1R         0.0394
     49 H23        44.1578   22.0714    0.4806 H         1 B1R         0.0394
     50 H24        43.2607   24.6331    0.2865 H         1 B1R         0.0583
     51 H25        43.8046   25.3686    2.5693 H         1 B1R         0.0707
     52 H26        42.1546   24.6594    2.5352 H         1 B1R         0.0707
@<TRIPOS>BOND
     1    1    5 am 
     2    8    1 1  
     3    3    2 1  
     4    2    9 1  
     5    3    7 1  
     6   10    3 1  
     7    4    5 am 
     8    7    4 1  
     9    5    6 2  
    10    7    8 1  
    11    8    9 1  
    12   11   10 1  
    13   12   11 1  
    14   13   12 1  
    15   14   13 1  
    16   14   15 2  
    17   19   14 1  
    18   17   16 2  
    19   20   16 1  
    20   18   17 1  
    21   18   19 1  
    22   20   19 2  
    23   21   22 2  
    24   21   25 1  
    25   22   23 1  
    26   24   23 2  
    27   25   24 1  
    28   26   16 1  
    29   26   17 1  
    30   26   18 1  
    31   26   20 1  
    32   26   21 1  
    33   26   22 1  
    34   26   23 1  
    35   26   24 1  
    36   26   25 1  
    37    1   27 1  
    38    3   28 1  
    39    4   29 1  
    40    7   30 1  
    41    8   31 1  
    42    9   32 1  
    43    9   33 1  
    44   10   34 1  
    45   10   35 1  
    46   11   36 1  
    47   11   37 1  
    48   12   38 1  
    49   12   39 1  
    50   13   40 1  
    51   13   41 1  
    52   16   42 1  
    53   17   43 1  
    54   18   44 1  
    55   18   45 1  
    56   20   46 1  
    57   21   47 1  
    58   22   48 1  
    59   23   49 1  
    60   24   50 1  
    61   25   51 1  
    62   25   52 1  
@<TRIPOS>SUBSTRUCTURE
     1 B1R         1

