### 
### Created by X-TOOL on Mon Sep 10 21:13:23 2018
### 

@<TRIPOS>MOLECULE
5dhf_ligand
  213   214     1     0     0
SMALL
GASTEIGER


@<TRIPOS>ATOM
      1 N         -28.0910   79.6870   24.6560 N.4       1 PHE         0.2276
      2 CA        -28.5830   78.5150   25.3710 C.3       1 PHE         0.0572
      3 C         -29.9080   78.7960   26.0770 C.2       1 PHE         0.2621
      4 O         -30.3080   78.0530   26.9710 O.2       1 PHE        -0.2696
      5 CB        -27.5450   78.0360   26.3920 C.3       1 PHE         0.0241
      6 CG        -26.4610   77.1820   25.8040 C.ar      1 PHE        -0.0415
      7 CD1       -26.7320   75.8890   25.3890 C.ar      1 PHE        -0.0584
      8 CD2       -25.1700   77.6650   25.6800 C.ar      1 PHE        -0.0584
      9 CE1       -25.7370   75.0970   24.8500 C.ar      1 PHE        -0.0615
     10 CE2       -24.1700   76.8770   25.1430 C.ar      1 PHE        -0.0615
     11 CZ        -24.4540   75.5900   24.7280 C.ar      1 PHE        -0.0617
     12 N         -30.5880   79.8670   25.6810 N.am      1 GLU        -0.2994
     13 CA        -31.8850   80.1850   26.2660 C.3       1 GLU         0.0999
     14 C         -32.9080   79.1310   25.8600 C.2       1 GLU         0.2340
     15 O         -32.8170   78.5560   24.7740 O.2       1 GLU        -0.2738
     16 CB        -32.3520   81.5780   25.8420 C.3       1 GLU        -0.0209
     17 CG        -31.5610   82.7100   26.4860 C.3       1 GLU        -0.0111
     18 CD        -32.1700   84.0780   26.2360 C.2       1 GLU         0.0418
     19 OE1       -33.3620   84.1480   25.8670 O.co2     1 GLU        -0.5498
     20 OE2       -31.4540   85.0860   26.4110 O.co2     1 GLU        -0.5498
     21 N         -33.8720   78.8750   26.7400 N.am      1 MSE        -0.3025
     22 CA        -34.8530   77.8170   26.5200 C.3       1 MSE         0.0994
     23 C         -36.2250   78.2180   27.0510 C.2       1 MSE         0.2340
     24 O         -36.8310   77.4980   27.8440 O.2       1 MSE        -0.2738
     25 CB        -34.3920   76.5190   27.1880 C.3       1 MSE        -0.0260
     26 CG        -32.9480   76.1500   26.8820 C.3       1 MSE        -0.0509
     27 SE        -32.4150   74.4130   27.5820 Se        1 MSE        -4.0000
     28 CE        -33.7530   73.3100   26.6960 C.3       1 MSE        -0.0681
     29 N         -36.7090   79.3720   26.6050 N.am      1 THR        -0.3003
     30 CA        -38.0220   79.8610   27.0040 C.3       1 THR         0.1252
     31 C         -39.1240   78.9230   26.5210 C.2       1 THR         0.2365
     32 O         -40.1920   78.8400   27.1280 O.2       1 THR        -0.2737
     33 CB        -38.2860   81.2730   26.4500 C.3       1 THR         0.0792
     34 OG1       -38.2740   81.2370   25.0180 O.3       1 THR        -0.3897
     35 CG2       -37.2270   82.2480   26.9430 C.3       1 THR        -0.0367
     36 N         -38.8570   78.2180   25.4250 N.am      1 GLU        -0.3024
     37 CA        -39.8240   77.2880   24.8540 C.3       1 GLU         0.0997
     38 C         -40.1290   76.1470   25.8200 C.2       1 GLU         0.2340
     39 O         -41.2530   75.6500   25.8720 O.2       1 GLU        -0.2738
     40 CB        -39.3070   76.7190   23.5290 C.3       1 GLU        -0.0209
     41 CG        -38.7670   77.7640   22.5590 C.3       1 GLU        -0.0111
     42 CD        -37.2470   77.8020   22.5080 C.2       1 GLU         0.0418
     43 OE1       -36.5970   77.4780   23.5260 O.co2     1 GLU        -0.5498
     44 OE2       -36.7000   78.1540   21.4420 O.co2     1 GLU        -0.5498
     45 N         -39.1190   75.7390   26.5830 N.am      1 PHE        -0.3022
     46 CA        -39.2570   74.6280   27.5220 C.3       1 PHE         0.1034
     47 C         -40.2250   74.9510   28.6540 C.2       1 PHE         0.2343
     48 O         -41.1230   74.1640   28.9520 O.2       1 PHE        -0.2738
     49 CB        -37.8930   74.2520   28.1020 C.3       1 PHE        -0.0007
     50 CG        -37.2880   73.0300   27.4770 C.ar      1 PHE        -0.0451
     51 CD1       -37.1160   72.9490   26.1070 C.ar      1 PHE        -0.0585
     52 CD2       -36.8820   71.9650   28.2630 C.ar      1 PHE        -0.0585
     53 CE1       -36.5570   71.8250   25.5320 C.ar      1 PHE        -0.0615
     54 CE2       -36.3220   70.8400   27.6940 C.ar      1 PHE        -0.0615
     55 CZ        -36.1590   70.7700   26.3270 C.ar      1 PHE        -0.0617
     56 N         -40.0290   76.1040   29.2870 N.am      1 ASN        -0.3020
     57 CA        -40.9030   76.5370   30.3700 C.3       1 ASN         0.1076
     58 C         -42.3490   76.6250   29.9050 C.2       1 ASN         0.2344
     59 O         -43.2540   76.1210   30.5690 O.2       1 ASN        -0.2737
     60 CB        -40.4520   77.8910   30.9180 C.3       1 ASN         0.0506
     61 CG        -39.1050   77.8210   31.6030 C.2       1 ASN         0.2127
     62 OD1       -38.0630   77.9410   30.9600 O.2       1 ASN        -0.2760
     63 ND2       -39.1190   77.6270   32.9180 N.am      1 ASN        -0.3293
     64 N         -42.5530   77.2600   28.7560 N.am      1 GLN        -0.3025
     65 CA        -43.8880   77.4390   28.1990 C.3       1 GLN         0.0999
     66 C         -44.5920   76.0970   28.0120 C.2       1 GLN         0.2339
     67 O         -45.7870   75.9740   28.2710 O.2       1 GLN        -0.2738
     68 CB        -43.8100   78.1840   26.8650 C.3       1 GLN        -0.0177
     69 CG        -45.1600   78.4540   26.2210 C.3       1 GLN         0.0259
     70 CD        -45.0340   79.1630   24.8890 C.2       1 GLN         0.2106
     71 OE1       -44.2650   80.1140   24.7490 O.2       1 GLN        -0.2760
     72 NE2       -45.7850   78.6970   23.8970 N.am      1 GLN        -0.3293
     73 N         -43.8420   75.0940   27.5680 N.am      1 ALA        -0.3027
     74 CA        -44.3990   73.7640   27.3540 C.3       1 ALA         0.0966
     75 C         -44.6570   73.0630   28.6850 C.2       1 ALA         0.2337
     76 O         -45.6010   72.2830   28.8120 O.2       1 ALA        -0.2738
     77 CB        -43.4660   72.9330   26.4860 C.3       1 ALA        -0.0381
     78 N         -43.8140   73.3450   29.6740 N.am      1 LEU        -0.3025
     79 CA        -43.9750   72.7700   31.0060 C.3       1 LEU         0.0996
     80 C         -45.1500   73.3990   31.7440 C.2       1 LEU         0.2340
     81 O         -45.9320   72.7030   32.3920 O.2       1 LEU        -0.2738
     82 CB        -42.6970   72.9480   31.8280 C.3       1 LEU        -0.0236
     83 CG        -41.6040   71.8960   31.6400 C.3       1 LEU        -0.0446
     84 CD1       -40.3360   72.3430   32.3400 C.3       1 LEU        -0.0626
     85 CD2       -42.0510   70.5400   32.1690 C.3       1 LEU        -0.0626
     86 N         -45.2680   74.7190   31.6450 N.am      1 GLU        -0.3025
     87 CA        -46.3610   75.4390   32.2870 C.3       1 GLU         0.0997
     88 C         -47.6990   75.0970   31.6330 C.2       1 GLU         0.2340
     89 O         -48.7600   75.4180   32.1700 O.2       1 GLU        -0.2738
     90 CB        -46.1170   76.9490   32.2250 C.3       1 GLU        -0.0209
     91 CG        -44.8610   77.4180   32.9570 C.3       1 GLU        -0.0111
     92 CD        -44.9810   77.3350   34.4690 C.2       1 GLU         0.0418
     93 OE1       -46.0860   77.0400   34.9710 O.co2     1 GLU        -0.5498
     94 OE2       -43.9640   77.5680   35.1560 O.co2     1 GLU        -0.5498
     95 N         -47.6430   74.4370   30.4780 N.am      1 GLU        -0.3025
     96 CA        -48.8460   74.0460   29.7480 C.3       1 GLU         0.0997
     97 C         -49.4120   72.7200   30.2630 C.2       1 GLU         0.2339
     98 O         -50.1740   72.0480   29.5670 O.2       1 GLU        -0.2738
     99 CB        -48.5450   73.9410   28.2500 C.3       1 GLU        -0.0209
    100 CG        -49.5790   74.6130   27.3590 C.3       1 GLU        -0.0111
    101 CD        -49.5290   76.1280   27.4430 C.2       1 GLU         0.0418
    102 OE1       -50.6010   76.7530   27.5860 O.co2     1 GLU        -0.5498
    103 OE2       -48.4190   76.6960   27.3580 O.co2     1 GLU        -0.5498
    104 N         -49.0340   72.3510   31.4840 N.am      1 ILE        -0.3056
    105 CA        -49.5420   71.1380   32.1150 C.3       1 ILE         0.0652
    106 C         -49.3890   71.2230   33.6310 C.2       1 ILE         0.0622
    107 O         -50.2530   70.7610   34.3780 O.co2     1 ILE        -0.5479
    108 CB        -48.8180   69.8760   31.5980 C.3       1 ILE        -0.0204
    109 CG1       -49.2070   68.6600   32.4420 C.3       1 ILE        -0.0513
    110 CG2       -47.3080   70.0750   31.6210 C.3       1 ILE        -0.0604
    111 CD1       -48.8160   67.3470   31.8300 C.3       1 ILE        -0.0650
    112 OXT       -48.3990   71.7550   34.1350 O.co2     1 ILE        -0.5479
    113 H1        -27.2180   79.4632   24.2046 H         1 PHE         0.2002
    114 H2        -27.9482   80.4427   25.3076 H         1 PHE         0.2002
    115 H3        -28.7667   79.9652   23.9616 H         1 PHE         0.2002
    116 H4        -28.7475   77.7118   24.6376 H         1 PHE         0.0952
    117 H5        -28.0646   77.4516   27.1656 H         1 PHE         0.0373
    118 H6        -27.0783   78.9197   26.8516 H         1 PHE         0.0373
    119 H7        -27.7365   75.4939   25.4883 H         1 PHE         0.0620
    120 H8        -24.9408   78.6725   26.0077 H         1 PHE         0.0620
    121 H9        -25.9639   74.0887   24.5230 H         1 PHE         0.0618
    122 H10       -23.1636   77.2681   25.0474 H         1 PHE         0.0618
    123 H11       -23.6710   74.9693   24.3077 H         1 PHE         0.0618
    124 H12       -30.2057   80.4616   24.9737 H         1 GLU         0.1496
    125 H13       -31.7854   80.1724   27.3614 H         1 GLU         0.0595
    126 H14       -33.4098   81.6901   26.1220 H         1 GLU         0.0291
    127 H15       -32.2510   81.6610   24.7498 H         1 GLU         0.0291
    128 H16       -30.5401   82.7010   26.0767 H         1 GLU         0.0325
    129 H17       -31.5223   82.5369   27.5716 H         1 GLU         0.0325
    130 H18       -33.9261   79.4224   27.5751 H         1 MSE         0.1495
    131 H19       -34.9373   77.6430   25.4371 H         1 MSE         0.0594
    132 H20       -35.0400   75.7009   26.8404 H         1 MSE         0.0288
    133 H21       -34.4975   76.6329   28.2770 H         1 MSE         0.0288
    134 H22       -32.2935   76.9168   27.3220 H         1 MSE         0.0266
    135 H23       -32.8169   76.1387   25.7899 H         1 MSE         0.0266
    136 H28       -33.6068   72.2574   26.9799 H         1 MSE         0.0227
    137 H29       -33.6500   73.4134   25.6057 H         1 MSE         0.0227
    138 H30       -34.7580   73.6360   27.0019 H         1 MSE         0.0227
    139 H31       -36.1563   79.9206   25.9776 H         1 THR         0.1496
    140 H32       -38.0532   79.9041   28.1027 H         1 THR         0.0621
    141 H33       -39.2736   81.6133   26.7946 H         1 THR         0.0614
    142 H34       -38.4371   82.1093   24.6791 H         1 THR         0.2099
    143 H35       -37.4330   83.2493   26.5369 H         1 THR         0.0255
    144 H36       -36.2349   81.9129   26.6064 H         1 THR         0.0255
    145 H37       -37.2475   82.2868   28.0421 H         1 THR         0.0255
    146 H38       -37.9682   78.3289   24.9803 H         1 GLU         0.1495
    147 H39       -40.7568   77.8373   24.6588 H         1 GLU         0.0595
    148 H40       -40.1354   76.1889   23.0364 H         1 GLU         0.0291
    149 H41       -38.4982   76.0079   23.7529 H         1 GLU         0.0291
    150 H42       -39.1316   78.7535   22.8718 H         1 GLU         0.0325
    151 H43       -39.1454   77.5354   21.5518 H         1 GLU         0.0325
    152 H44       -38.2381   76.2069   26.5119 H         1 PHE         0.1495
    153 H45       -39.6522   73.7626   26.9698 H         1 PHE         0.0598
    154 H46       -38.0128   74.0676   29.1798 H         1 PHE         0.0336
    155 H47       -37.2056   75.0969   27.9487 H         1 PHE         0.0336
    156 H48       -37.4233   73.7767   25.4781 H         1 PHE         0.0620
    157 H49       -37.0057   72.0158   29.3387 H         1 PHE         0.0620
    158 H50       -36.4309   71.7715   24.4567 H         1 PHE         0.0618
    159 H51       -36.0106   70.0123   28.3209 H         1 PHE         0.0618
    160 H52       -35.7188   69.8874   25.8773 H         1 PHE         0.0618
    161 H53       -39.2642   76.6874   29.0136 H         1 ASN         0.1495
    162 H54       -40.8425   75.7947   31.1795 H         1 ASN         0.0599
    163 H55       -41.1989   78.2437   31.6445 H         1 ASN         0.0381
    164 H56       -40.3864   78.6048   30.0836 H         1 ASN         0.0381
    165 H57       -38.2585   77.5721   33.4245 H         1 ASN         0.1449
    166 H58       -39.9900   77.5359   33.4007 H         1 ASN         0.1449
    167 H59       -41.7668   77.6263   28.2582 H         1 GLN         0.1495
    168 H60       -44.4780   78.0441   28.9030 H         1 GLN         0.0595
    169 H61       -43.2100   77.5808   26.1678 H         1 GLN         0.0292
    170 H62       -43.3113   79.1491   27.0377 H         1 GLN         0.0292
    171 H63       -45.7559   79.0816   26.9000 H         1 GLN         0.0359
    172 H64       -45.6740   77.4944   26.0629 H         1 GLN         0.0359
    173 H65       -45.7435   79.1257   22.9945 H         1 GLN         0.1449
    174 H66       -46.3917   77.9175   24.0528 H         1 GLN         0.1449
    175 H67       -42.8738   75.2552   27.3764 H         1 ALA         0.1495
    176 H68       -45.3591   73.8713   26.8280 H         1 ALA         0.0592
    177 H69       -43.8998   71.9336   26.3339 H         1 ALA         0.0252
    178 H70       -42.4900   72.8371   26.9842 H         1 ALA         0.0252
    179 H71       -43.3337   73.4273   25.5123 H         1 ALA         0.0252
    180 H72       -43.0503   73.9669   29.5008 H         1 LEU         0.1495
    181 H73       -44.1716   71.6935   30.8940 H         1 LEU         0.0594
    182 H74       -42.9817   72.9456   32.8905 H         1 LEU         0.0290
    183 H75       -42.2663   73.9257   31.5660 H         1 LEU         0.0290
    184 H76       -41.3959   71.7973   30.5644 H         1 LEU         0.0296
    185 H77       -39.5532   71.5827   32.2015 H         1 LEU         0.0232
    186 H78       -40.5360   72.4720   33.4139 H         1 LEU         0.0232
    187 H79       -39.9985   73.2987   31.9125 H         1 LEU         0.0232
    188 H80       -42.9710   70.2299   31.6519 H         1 LEU         0.0232
    189 H81       -42.2446   70.6135   33.2493 H         1 LEU         0.0232
    190 H82       -41.2604   69.7970   31.9879 H         1 LEU         0.0232
    191 H83       -44.5903   75.2310   31.1171 H         1 GLU         0.1495
    192 H84       -46.4026   75.1350   33.3433 H         1 GLU         0.0595
    193 H85       -46.9848   77.4560   32.6722 H         1 GLU         0.0291
    194 H86       -46.0272   77.2395   31.1679 H         1 GLU         0.0291
    195 H87       -44.6650   78.4641   32.6792 H         1 GLU         0.0325
    196 H88       -44.0161   76.7896   32.6388 H         1 GLU         0.0325
    197 H89       -46.7484   74.2014   30.0981 H         1 GLU         0.1495
    198 H90       -49.6070   74.8261   29.8973 H         1 GLU         0.0595
    199 H91       -48.4980   72.8754   27.9811 H         1 GLU         0.0291
    200 H92       -47.5685   74.4105   28.0603 H         1 GLU         0.0291
    201 H93       -50.5802   74.2764   27.6661 H         1 GLU         0.0325
    202 H94       -49.3946   74.3121   26.3172 H         1 GLU         0.0325
    203 H95       -48.3826   72.9219   31.9838 H         1 ILE         0.1494
    204 H96       -50.6114   71.0477   31.8736 H         1 ILE         0.0563
    205 H97       -49.1301   69.6955   30.5588 H         1 ILE         0.0320
    206 H98       -50.2985   68.6675   32.5784 H         1 ILE         0.0266
    207 H99       -48.7144   68.7461   33.4218 H         1 ILE         0.0266
    208 H100      -47.0444   70.9514   31.0108 H         1 ILE         0.0233
    209 H101      -46.8141   69.1814   31.2118 H         1 ILE         0.0233
    210 H102      -46.9751   70.2360   32.6570 H         1 ILE         0.0233
    211 H103      -49.1280   66.5263   32.4926 H         1 ILE         0.0230
    212 H104      -47.7247   67.3154   31.6961 H         1 ILE         0.0230
    213 H105      -49.3087   67.2367   30.8527 H         1 ILE         0.0230
@<TRIPOS>BOND
     1    1    2 1  
     2    2    3 1  
     3    2    5 1  
     4    3    4 2  
     5    3   12 am 
     6    5    6 1  
     7    6    7 ar 
     8    6    8 ar 
     9    7    9 ar 
    10    8   10 ar 
    11    9   11 ar 
    12   10   11 ar 
    13   12   13 1  
    14   13   14 1  
    15   13   16 1  
    16   14   15 2  
    17   14   21 am 
    18   16   17 1  
    19   17   18 1  
    20   18   19 ar 
    21   18   20 ar 
    22   21   22 1  
    23   22   23 1  
    24   22   25 1  
    25   23   24 2  
    26   23   29 am 
    27   25   26 1  
    28   26   27 1  
    29   27   28 1  
    30   29   30 1  
    31   30   31 1  
    32   30   33 1  
    33   31   32 2  
    34   31   36 am 
    35   33   34 1  
    36   33   35 1  
    37   36   37 1  
    38   37   38 1  
    39   37   40 1  
    40   38   39 2  
    41   38   45 am 
    42   40   41 1  
    43   41   42 1  
    44   42   43 ar 
    45   42   44 ar 
    46   45   46 1  
    47   46   47 1  
    48   46   49 1  
    49   47   48 2  
    50   47   56 am 
    51   49   50 1  
    52   50   51 ar 
    53   50   52 ar 
    54   51   53 ar 
    55   52   54 ar 
    56   53   55 ar 
    57   54   55 ar 
    58   56   57 1  
    59   57   58 1  
    60   57   60 1  
    61   58   59 2  
    62   58   64 am 
    63   60   61 1  
    64   61   62 2  
    65   61   63 am 
    66   64   65 1  
    67   65   66 1  
    68   65   68 1  
    69   66   67 2  
    70   66   73 am 
    71   68   69 1  
    72   69   70 1  
    73   70   71 2  
    74   70   72 am 
    75   73   74 1  
    76   74   75 1  
    77   74   77 1  
    78   75   76 2  
    79   75   78 am 
    80   78   79 1  
    81   79   80 1  
    82   79   82 1  
    83   80   81 2  
    84   80   86 am 
    85   82   83 1  
    86   83   84 1  
    87   83   85 1  
    88   86   87 1  
    89   87   88 1  
    90   87   90 1  
    91   88   89 2  
    92   88   95 am 
    93   90   91 1  
    94   91   92 1  
    95   92   93 ar 
    96   92   94 ar 
    97   95   96 1  
    98   96   97 1  
    99   96   99 1  
   100   97   98 2  
   101   97  104 am 
   102   99  100 1  
   103  100  101 1  
   104  101  102 ar 
   105  101  103 ar 
   106  104  105 1  
   107  105  106 1  
   108  105  108 1  
   109  106  107 ar 
   110  106  112 ar 
   111  108  109 1  
   112  108  110 1  
   113  109  111 1  
   114    1  113 1  
   115    1  114 1  
   116    1  115 1  
   117    2  116 1  
   118    5  117 1  
   119    5  118 1  
   120    7  119 1  
   121    8  120 1  
   122    9  121 1  
   123   10  122 1  
   124   11  123 1  
   125   12  124 1  
   126   13  125 1  
   127   16  126 1  
   128   16  127 1  
   129   17  128 1  
   130   17  129 1  
   131   21  130 1  
   132   22  131 1  
   133   25  132 1  
   134   25  133 1  
   135   26  134 1  
   136   26  135 1  
   137   28  136 1  
   138   28  137 1  
   139   28  138 1  
   140   29  139 1  
   141   30  140 1  
   142   33  141 1  
   143   34  142 1  
   144   35  143 1  
   145   35  144 1  
   146   35  145 1  
   147   36  146 1  
   148   37  147 1  
   149   40  148 1  
   150   40  149 1  
   151   41  150 1  
   152   41  151 1  
   153   45  152 1  
   154   46  153 1  
   155   49  154 1  
   156   49  155 1  
   157   51  156 1  
   158   52  157 1  
   159   53  158 1  
   160   54  159 1  
   161   55  160 1  
   162   56  161 1  
   163   57  162 1  
   164   60  163 1  
   165   60  164 1  
   166   63  165 1  
   167   63  166 1  
   168   64  167 1  
   169   65  168 1  
   170   68  169 1  
   171   68  170 1  
   172   69  171 1  
   173   69  172 1  
   174   72  173 1  
   175   72  174 1  
   176   73  175 1  
   177   74  176 1  
   178   77  177 1  
   179   77  178 1  
   180   77  179 1  
   181   78  180 1  
   182   79  181 1  
   183   82  182 1  
   184   82  183 1  
   185   83  184 1  
   186   84  185 1  
   187   84  186 1  
   188   84  187 1  
   189   85  188 1  
   190   85  189 1  
   191   85  190 1  
   192   86  191 1  
   193   87  192 1  
   194   90  193 1  
   195   90  194 1  
   196   91  195 1  
   197   91  196 1  
   198   95  197 1  
   199   96  198 1  
   200   99  199 1  
   201   99  200 1  
   202  100  201 1  
   203  100  202 1  
   204  104  203 1  
   205  105  204 1  
   206  108  205 1  
   207  109  206 1  
   208  109  207 1  
   209  110  208 1  
   210  110  209 1  
   211  110  210 1  
   212  111  211 1  
   213  111  212 1  
   214  111  213 1  
@<TRIPOS>SUBSTRUCTURE
     1 PHE         1

