### 
### Created by X-TOOL on Mon Sep 10 21:13:23 2018
### 

@<TRIPOS>MOLECULE
5fjw_ligand
  148   151     1     0     0
SMALL
GAST_HUCK


@<TRIPOS>ATOM
      1 N          66.3410    5.9040  138.6030 N.4       1 ASP         0.2391
      2 CA         66.5440    4.4600  138.3360 C.3       1 ASP         0.0764
      3 C          65.2110    3.6930  138.4310 C.2       1 ASP         0.2285
      4 O          64.6650    3.5020  139.5350 O.2       1 ASP        -0.3906
      5 CB         67.5800    3.9030  139.3320 C.3       1 ASP         0.0607
      6 CG         68.1980    2.5810  138.8780 C.2       1 ASP         0.0425
      7 OD1        68.1210    2.2250  137.6780 O.co2     1 ASP        -0.5686
      8 OD2        68.7800    1.8900  139.7400 O.co2     1 ASP        -0.5686
      9 N          64.6970    3.2530  137.2750 N.am      1 ASP        -0.2594
     10 CA         63.5370    2.3330  137.2380 C.3       1 ASP         0.1424
     11 C          63.8400    0.9490  137.8910 C.2       1 ASP         0.2057
     12 O          62.9300    0.1940  138.2390 O.2       1 ASP        -0.3943
     13 CB         62.9710    2.1910  135.7890 C.3       1 ASP         0.0406
     14 CG         63.6830    1.0880  134.9230 C.2       1 ASP         0.0393
     15 OD1        64.6350    0.4210  135.3820 O.co2     1 ASP        -0.5688
     16 OD2        63.2700    0.8800  133.7550 O.co2     1 ASP        -0.5688
     17 N          65.1270    0.6460  138.0530 N.am      1 TRP        -0.2626
     18 CA         65.6210   -0.6380  138.5190 C.3       1 TRP         0.1352
     19 C          65.9620   -0.6680  140.0180 C.2       1 TRP         0.2053
     20 O          66.6180   -1.6020  140.4760 O.2       1 TRP        -0.3942
     21 CB         66.8720   -0.9660  137.7050 C.3       1 TRP         0.0042
     22 CG         67.0990   -2.3810  137.4480 C.2       1 TRP        -0.0418
     23 CD1        68.0940   -3.1400  137.9490 C.2       1 TRP         0.0167
     24 CD2        66.3350   -3.2260  136.5830 C.ar      1 TRP        -0.0214
     25 NE1        68.0010   -4.4240  137.4670 N.pl3     1 TRP        -0.2890
     26 CE2        66.9240   -4.5050  136.6250 C.ar      1 TRP         0.0603
     27 CE3        65.2010   -3.0310  135.7890 C.ar      1 TRP        -0.0747
     28 CZ2        66.4180   -5.5920  135.9000 C.ar      1 TRP        -0.0443
     29 CZ3        64.7050   -4.1080  135.0560 C.ar      1 TRP        -0.0792
     30 CH2        65.3160   -5.3700  135.1190 C.ar      1 TRP        -0.0768
     31 N          65.5640    0.3570  140.7730 N.am      1 ASN        -0.2615
     32 CA         65.5490    0.2800  142.2410 C.3       1 ASN         0.1476
     33 C          64.1590    0.6200  142.7820 C.2       1 ASN         0.2063
     34 O          63.6530    1.7430  142.6320 O.2       1 ASN        -0.3942
     35 CB         66.6190    1.1890  142.8720 C.3       1 ASN         0.0773
     36 CG         67.9200    0.4470  143.1600 C.2       1 ASN         0.1780
     37 OD1        68.1990    0.0750  144.2990 O.2       1 ASN        -0.3970
     38 ND2        68.7040    0.1970  142.1140 N.am      1 ASN        -0.3007
     39 N          63.5360   -0.3780  143.3820 N.am      1 TRP        -0.2625
     40 CA         62.2200   -0.2330  143.9880 C.3       1 TRP         0.1352
     41 C          62.1260   -1.3520  145.0290 C.2       1 TRP         0.2052
     42 O          62.8060   -2.3620  144.8670 O.2       1 TRP        -0.3942
     43 CB         61.1290   -0.3280  142.9110 C.3       1 TRP         0.0042
     44 CG         61.1640   -1.5840  142.0530 C.2       1 TRP        -0.0418
     45 CD1        61.8120   -1.7640  140.8560 C.2       1 TRP         0.0167
     46 CD2        60.5190   -2.7990  142.3350 C.ar      1 TRP        -0.0214
     47 NE1        61.6110   -3.0270  140.3940 N.pl3     1 TRP        -0.2890
     48 CE2        60.8180   -3.6860  141.2880 C.ar      1 TRP         0.0603
     49 CE3        59.7360   -3.2400  143.3890 C.ar      1 TRP        -0.0747
     50 CZ2        60.3420   -4.9810  141.2600 C.ar      1 TRP        -0.0443
     51 CZ3        59.2700   -4.5180  143.3690 C.ar      1 TRP        -0.0792
     52 CH2        59.5690   -5.3840  142.3120 C.ar      1 TRP        -0.0768
     53 N          61.3690   -1.1810  146.1160 N.am      1 GLU        -0.2635
     54 CA         61.3940   -2.2190  147.1700 C.3       1 GLU         0.1325
     55 C          60.0690   -2.9030  147.2420 C.2       1 GLU         0.2040
     56 O          59.0560   -2.2960  146.9840 O.2       1 GLU        -0.3944
     57 CB         61.8660   -1.7200  148.5760 C.3       1 GLU        -0.0008
     58 CG         63.3900   -1.7360  148.8650 C.3       1 GLU         0.0044
     59 CD         64.2150   -2.8550  148.1620 C.2       1 GLU         0.0350
     60 OE1        63.7410   -4.0150  147.9510 O.co2     1 GLU        -0.5690
     61 OE2        65.3890   -2.5770  147.8170 O.co2     1 GLU        -0.5690
     62 N          60.1020   -4.1850  147.5820 N.am      1 MSE        -0.2637
     63 CA         58.8850   -4.9350  147.7630 C.3       1 MSE         0.1310
     64 C          58.2910   -4.3580  149.0230 C.2       1 MSE         0.2039
     65 O          59.0080   -4.0640  149.9870 O.2       1 MSE        -0.3944
     66 CB         59.1310   -6.4230  147.9330 C.3       1 MSE        -0.0124
     67 CG         60.1290   -7.0310  146.9600 C.3       1 MSE        -0.0486
     68 SE         59.9810   -9.0010  147.0500 Se        1 MSE        -4.0000
     69 CE         61.8170   -9.5360  147.5500 C.3       1 MSE        -0.0681
     70 N          56.9790   -4.1750  149.0150 N.am      1 GLU        -0.2636
     71 CA         56.2580   -3.6130  150.1420 C.3       1 GLU         0.1324
     72 C          55.5160   -4.7200  150.9030 C.2       1 GLU         0.2035
     73 O          55.7700   -5.8980  150.6440 O.2       1 GLU        -0.3944
     74 CB         55.3840   -2.4670  149.6420 C.3       1 GLU        -0.0008
     75 CG         56.2510   -1.2800  149.2200 C.3       1 GLU         0.0044
     76 CD         55.4760    0.0000  148.8850 C.2       1 GLU         0.0350
     77 OE1        54.2180    0.0190  148.8570 O.co2     1 GLU        -0.5690
     78 OE2        56.1490    1.0200  148.6300 O.co2     1 GLU        -0.5690
     79 N          54.6740   -4.3430  151.8790 N.am      1 ASP        -0.2679
     80 CA         54.0570   -5.2620  152.8770 C.3       1 ASP         0.1057
     81 C          55.1090   -5.9620  153.7820 C.2       1 ASP         0.0618
     82 O          56.3160   -5.6940  153.7330 O.co2     1 ASP        -0.5665
     83 CB         53.0970   -6.2930  152.2190 C.3       1 ASP         0.0351
     84 CG         51.6500   -5.7920  152.1030 C.2       1 ASP         0.0387
     85 OD1        51.4270   -4.5950  151.8000 O.co2     1 ASP        -0.5688
     86 OD2        50.7350   -6.6250  152.2920 O.co2     1 ASP        -0.5688
     87 OXT        54.7920   -6.8160  154.6180 O.co2     1 ASP        -0.5665
     88 H          67.2240    6.3855  138.5358 H         1 ASP         0.2016
     89 H          65.9623    6.0245  139.5294 H         1 ASP         0.2016
     90 H          65.6987    6.2840  137.9254 H         1 ASP         0.2016
     91 H          66.9385    4.3418  137.3160 H         1 ASP         0.1117
     92 H          67.0836    3.7430  140.3005 H         1 ASP         0.0512
     93 H          68.3850    4.6433  139.4504 H         1 ASP         0.0512
     94 H          65.1074    3.5537  136.4141 H         1 ASP         0.1886
     95 H          62.7457    2.7980  137.8443 H         1 ASP         0.0819
     96 H          63.0858    3.1581  135.2777 H         1 ASP         0.0478
     97 H          61.9028    1.9379  135.8593 H         1 ASP         0.0478
     98 H          65.8011    1.3528  137.8385 H         1 TRP         0.1884
     99 H          64.8503   -1.3993  138.3283 H         1 TRP         0.0815
    100 H          67.7437   -0.5767  138.2514 H         1 TRP         0.0397
    101 H          66.7889   -0.4544  136.7348 H         1 TRP         0.0397
    102 H          68.8611   -2.7868  138.6366 H         1 TRP         0.0795
    103 H          68.6377   -5.1990  137.7010 H         1 TRP         0.2216
    104 H          64.7172   -2.0620  135.7442 H         1 TRP         0.0540
    105 H          66.8811   -6.5705  135.9554 H         1 TRP         0.0541
    106 H          63.8332   -3.9685  134.4271 H         1 TRP         0.0510
    107 H          64.9061   -6.1870  134.5362 H         1 TRP         0.0530
    108 H          65.2674    1.2019  140.3278 H         1 ASN         0.1885
    109 H          65.7801   -0.7571  142.5257 H         1 ASN         0.0826
    110 H          66.2264    1.5924  143.8171 H         1 ASN         0.0551
    111 H          66.8311    2.0171  142.1798 H         1 ASN         0.0551
    112 H          69.5698   -0.2866  142.2424 H         1 ASN         0.1814
    113 H          68.4272    0.4927  141.1997 H         1 ASN         0.1814
    114 H          63.9866   -1.2699  143.4218 H         1 TRP         0.1884
    115 H          62.1380    0.7436  144.4874 H         1 TRP         0.0815
    116 H          61.2339    0.5408  142.2445 H         1 TRP         0.0397
    117 H          60.1516   -0.2883  143.4141 H         1 TRP         0.0397
    118 H          62.4032   -1.0031  140.3485 H         1 TRP         0.0795
    119 H          61.9914   -3.4185  139.5205 H         1 TRP         0.2216
    120 H          59.4989   -2.5789  144.2147 H         1 TRP         0.0540
    121 H          60.5716   -5.6499  140.4385 H         1 TRP         0.0541
    122 H          58.6549   -4.8722  144.1883 H         1 TRP         0.0510
    123 H          59.1795   -6.3955  142.3279 H         1 TRP         0.0530
    124 H          60.7964   -0.3672  146.2155 H         1 GLU         0.1883
    125 H          62.1298   -2.9714  146.8498 H         1 GLU         0.0801
    126 H          61.3803   -2.3550  149.3316 H         1 GLU         0.0330
    127 H          61.5193   -0.6825  148.6913 H         1 GLU         0.0330
    128 H          63.5239   -1.8530  149.9505 H         1 GLU         0.0433
    129 H          63.8014   -0.7667  148.5471 H         1 GLU         0.0433
    130 H          60.9840   -4.6372  147.7145 H         1 MSE         0.1883
    131 H          58.2114   -4.7793  146.9074 H         1 MSE         0.0800
    132 H          58.1705   -6.9434  147.8043 H         1 MSE         0.0312
    133 H          59.5054   -6.5914  148.9535 H         1 MSE         0.0312
    134 H          61.1487   -6.7234  147.2349 H         1 MSE         0.0267
    135 H          59.9057   -6.6892  145.9386 H         1 MSE         0.0267
    136 H          61.8696  -10.6315  147.6342 H         1 MSE         0.0227
    137 H          62.0813   -9.0809  148.5159 H         1 MSE         0.0227
    138 H          62.5218   -9.1934  146.7781 H         1 MSE         0.0227
    139 H          56.4639   -4.4350  148.1982 H         1 GLU         0.1883
    140 H          56.9917   -3.1821  150.8392 H         1 GLU         0.0801
    141 H          54.7046   -2.1513  150.4474 H         1 GLU         0.0330
    142 H          54.7949   -2.8104  148.7789 H         1 GLU         0.0330
    143 H          56.8240   -1.5754  148.3287 H         1 GLU         0.0433
    144 H          56.9444   -1.0537  150.0434 H         1 GLU         0.0433
    145 H          54.4435   -3.3719  151.9408 H         1 ASP         0.1876
    146 H          53.4412   -4.6347  153.5383 H         1 ASP         0.0745
    147 H          53.1007   -7.2100  152.8266 H         1 ASP         0.0471
    148 H          53.4690   -6.5207  151.2092 H         1 ASP         0.0471
@<TRIPOS>BOND
     1    1    2 1  
     2    2    3 1  
     3    2    5 1  
     4    3    4 2  
     5    3    9 am 
     6    5    6 1  
     7    6    7 ar 
     8    6    8 ar 
     9    9   10 1  
    10   10   11 1  
    11   10   13 1  
    12   11   12 2  
    13   11   17 am 
    14   13   14 1  
    15   14   15 ar 
    16   14   16 ar 
    17   17   18 1  
    18   18   19 1  
    19   18   21 1  
    20   19   20 2  
    21   19   31 am 
    22   21   22 1  
    23   22   23 2  
    24   22   24 1  
    25   23   25 1  
    26   24   26 ar 
    27   24   27 ar 
    28   25   26 1  
    29   26   28 ar 
    30   27   29 ar 
    31   28   30 ar 
    32   29   30 ar 
    33   31   32 1  
    34   32   33 1  
    35   32   35 1  
    36   33   34 2  
    37   33   39 am 
    38   35   36 1  
    39   36   37 2  
    40   36   38 am 
    41   39   40 1  
    42   40   41 1  
    43   40   43 1  
    44   41   42 2  
    45   41   53 am 
    46   43   44 1  
    47   44   45 2  
    48   44   46 1  
    49   45   47 1  
    50   46   48 ar 
    51   46   49 ar 
    52   47   48 1  
    53   48   50 ar 
    54   49   51 ar 
    55   50   52 ar 
    56   51   52 ar 
    57   53   54 1  
    58   54   55 1  
    59   54   57 1  
    60   55   56 2  
    61   55   62 am 
    62   57   58 1  
    63   58   59 1  
    64   59   60 ar 
    65   59   61 ar 
    66   62   63 1  
    67   63   64 1  
    68   63   66 1  
    69   64   65 2  
    70   64   70 am 
    71   66   67 1  
    72   67   68 1  
    73   68   69 1  
    74   70   71 1  
    75   71   72 1  
    76   71   74 1  
    77   72   73 2  
    78   72   79 am 
    79   74   75 1  
    80   75   76 1  
    81   76   77 ar 
    82   76   78 ar 
    83   79   80 1  
    84   80   81 1  
    85   80   83 1  
    86   81   82 ar 
    87   81   87 ar 
    88   83   84 1  
    89   84   85 ar 
    90   84   86 ar 
    91    1   88 1  
    92    1   89 1  
    93    1   90 1  
    94    2   91 1  
    95    5   92 1  
    96    5   93 1  
    97    9   94 1  
    98   10   95 1  
    99   13   96 1  
   100   13   97 1  
   101   17   98 1  
   102   18   99 1  
   103   21  100 1  
   104   21  101 1  
   105   23  102 1  
   106   25  103 1  
   107   27  104 1  
   108   28  105 1  
   109   29  106 1  
   110   30  107 1  
   111   31  108 1  
   112   32  109 1  
   113   35  110 1  
   114   35  111 1  
   115   38  112 1  
   116   38  113 1  
   117   39  114 1  
   118   40  115 1  
   119   43  116 1  
   120   43  117 1  
   121   45  118 1  
   122   47  119 1  
   123   49  120 1  
   124   50  121 1  
   125   51  122 1  
   126   52  123 1  
   127   53  124 1  
   128   54  125 1  
   129   57  126 1  
   130   57  127 1  
   131   58  128 1  
   132   58  129 1  
   133   62  130 1  
   134   63  131 1  
   135   66  132 1  
   136   66  133 1  
   137   67  134 1  
   138   67  135 1  
   139   69  136 1  
   140   69  137 1  
   141   69  138 1  
   142   70  139 1  
   143   71  140 1  
   144   74  141 1  
   145   74  142 1  
   146   75  143 1  
   147   75  144 1  
   148   79  145 1  
   149   80  146 1  
   150   83  147 1  
   151   83  148 1  
@<TRIPOS>SUBSTRUCTURE
     1 ASP         1

