### 
### Created by X-TOOL on Wed Jan  1 15:39:34 2020
### 

@<TRIPOS>MOLECULE
5fsb_ligand
   29    29     1     0     0
SMALL
GAST_HUCK


@<TRIPOS>ATOM
      1 O4        -27.4670   -1.6850   53.3920 O.3       1 6YR        -0.3866
      2 C4        -27.0000   -2.1350   54.6750 C.3       1 6YR         0.1093
      3 C3        -25.5910   -2.7300   54.4990 C.3       1 6YR         0.1120
      4 O3        -25.5580   -3.5850   53.4480 O.3       1 6YR        -0.3865
      5 C2        -24.5880   -1.6040   54.4530 C.3       1 6YR         0.1152
      6 O2        -23.3090   -2.2300   54.3570 O.3       1 6YR        -0.3745
      7 C7        -22.5410   -1.9480   53.2300 C.3       1 6YR         0.0370
      8 C5        -27.0460   -1.0430   55.6860 C.3       1 6YR         0.0848
      9 C6        -28.4020   -0.4170   55.6180 C.3       1 6YR        -0.0361
     10 O5        -25.9980   -0.0670   55.6220 O.3       1 6YR        -0.3657
     11 C1        -24.7740   -0.8020   55.7030 C.3       1 6YR         0.1162
     12 SE        -23.4150    0.6020   55.7980 Se        1 6YR        -4.0000
     13 C8        -23.7800    1.4490   54.2450 C.3       1 6YR        -0.0681
     14 H1        -26.8744   -1.0235   53.0547 H         1 6YR         0.2100
     15 H2        -27.6673   -2.9366   55.0246 H         1 6YR         0.0646
     16 H3        -25.3621   -3.3259   55.3948 H         1 6YR         0.0647
     17 H4        -24.6815   -3.9400   53.3574 H         1 6YR         0.2100
     18 H5        -24.7536   -0.9608   53.5762 H         1 6YR         0.0649
     19 H6        -21.5884   -2.4948   53.2893 H         1 6YR         0.0524
     20 H7        -22.3412   -0.8673   53.1834 H         1 6YR         0.0524
     21 H8        -23.0867   -2.2593   52.3271 H         1 6YR         0.0524
     22 H9        -26.9505   -1.5216   56.6718 H         1 6YR         0.0620
     23 H10       -28.4677    0.3963   56.3557 H         1 6YR         0.0255
     24 H11       -29.1675   -1.1753   55.8392 H         1 6YR         0.0255
     25 H12       -28.5684   -0.0113   54.6092 H         1 6YR         0.0255
     26 H13       -24.7475   -1.4555   56.5874 H         1 6YR         0.0650
     27 H18       -23.0921    2.2983   54.1201 H         1 6YR         0.0227
     28 H19       -24.8167    1.8164   54.2625 H         1 6YR         0.0227
     29 H20       -23.6534    0.7483   53.4066 H         1 6YR         0.0227
@<TRIPOS>BOND
     1    1    2 1  
     2    2    3 1  
     3    2    8 1  
     4    3    4 1  
     5    3    5 1  
     6    5    6 1  
     7    5   11 1  
     8    6    7 1  
     9    8    9 1  
    10    8   10 1  
    11   10   11 1  
    12   11   12 1  
    13   12   13 1  
    14    1   14 1  
    15    2   15 1  
    16    3   16 1  
    17    4   17 1  
    18    5   18 1  
    19    7   19 1  
    20    7   20 1  
    21    7   21 1  
    22    8   22 1  
    23    9   23 1  
    24    9   24 1  
    25    9   25 1  
    26   11   26 1  
    27   13   27 1  
    28   13   28 1  
    29   13   29 1  
@<TRIPOS>SUBSTRUCTURE
     1 6YR         1

