### 
### Created by X-TOOL on Wed Jan  1 15:39:35 2020
### 

@<TRIPOS>MOLECULE
5zeq_ligand
   25    25     1     0     0
SMALL
GAST_HUCK


@<TRIPOS>ATOM
      1 C1         35.6110  -23.6730    1.4350 C.ar      1 9B3        -0.0379
      2 C2         35.4010  -25.0120    1.1490 C.ar      1 9B3         0.0788
      3 CL1        35.9860  -26.0850    2.3240 Cl        1 9B3        -0.0730
      4 C3         34.7080  -25.4460    0.0210 C.ar      1 9B3         0.1160
      5 N1         34.5900  -26.7610   -0.1110 N.pl3     1 9B3        -0.3250
      6 N2         34.1950  -24.5700   -0.8870 N.ar      1 9B3        -0.2929
      7 C4         34.4140  -23.1790   -0.5740 C.ar      1 9B3        -0.0028
      8 C5         35.1100  -22.6880    0.6010 C.ar      1 9B3        -0.0268
      9 C6         35.3650  -21.2300    0.9160 C.3       1 9B3        -0.0048
     10 C7         34.7000  -20.5880    2.2330 C.3       1 9B3         0.0209
     11 C8         35.3030  -21.2270    3.4490 C.2       1 9B3         0.0397
     12 O1         34.5230  -22.0860    3.9370 O.co2     1 9B3        -0.5686
     13 O2         36.5340  -21.0160    3.8270 O.co2     1 9B3        -0.5686
     14 C9         34.7810  -19.0080    2.2580 C.3       1 9B3        -0.0350
     15 SE1        34.3770  -18.2600    3.8610 Se        1 9B3        -4.0000
     16 H1         36.1724  -23.3940    2.3193 H         1 9B3         0.0648
     17 H2         34.0900  -27.1545   -0.9210 H         1 9B3         0.1749
     18 H3         34.9984  -27.3883    0.5965 H         1 9B3         0.1749
     19 H4         34.0287  -22.4432   -1.2706 H         1 9B3         0.0718
     20 H5         35.0044  -20.6467    0.0560 H         1 9B3         0.0436
     21 H6         36.4538  -21.1067    1.0121 H         1 9B3         0.0436
     22 H7         33.6312  -20.8478    2.2215 H         1 9B3         0.0487
     23 H8         34.0776  -18.6159    1.5087 H         1 9B3         0.0288
     24 H9         35.8058  -18.7121    1.9892 H         1 9B3         0.0288
     25 H10        34.6945  -16.4274    3.0859 H         1 9B3         0.0000
@<TRIPOS>BOND
     1    1    2 ar 
     2    1    8 ar 
     3    2    3 1  
     4    2    4 ar 
     5    4    5 1  
     6    4    6 ar 
     7    6    7 ar 
     8    7    8 ar 
     9    8    9 1  
    10    9   10 1  
    11   10   11 1  
    12   10   14 1  
    13   11   12 ar 
    14   11   13 ar 
    15   14   15 1  
    16    1   16 1  
    17    5   17 1  
    18    5   18 1  
    19    7   19 1  
    20    9   20 1  
    21    9   21 1  
    22   10   22 1  
    23   14   23 1  
    24   14   24 1  
    25   15   25 1  
@<TRIPOS>SUBSTRUCTURE
     1 9B3         1

