### 
### Created by X-TOOL on Wed Jan  1 15:39:35 2020
### 

@<TRIPOS>MOLECULE
6d1l_ligand
   26    26     1     0     0
SMALL
GAST_HUCK


@<TRIPOS>ATOM
      1 C2          1.6960    9.0770   84.7020 C.1       1 FQV        -0.1056
      2 C3          1.4580    8.0320   84.1510 C.1       1 FQV        -0.1016
      3 C8         -2.9620    4.2060   85.2550 C.ar      1 FQV        -0.0345
      4 C14        -0.8070    3.1810   85.2240 C.ar      1 FQV        -0.0345
      5 C7         -2.4990    5.2300   84.4760 C.ar      1 FQV        -0.0522
      6 C15        -0.3390    4.2110   84.4430 C.ar      1 FQV        -0.0522
      7 C9         -2.1280    3.1590   85.6260 C.ar      1 FQV         0.1079
      8 C6         -1.1900    5.2320   84.0670 C.ar      1 FQV        -0.0178
      9 C1          1.9850   10.3320   85.2670 C.3       1 FQV        -0.0026
     10 C4          1.1930    6.7490   83.4630 C.3       1 FQV         0.0199
     11 N12        -2.2280    0.4660   85.9300 N.am      1 FQV        -0.2609
     12 O11        -2.1920    2.0480   87.9470 O.2       1 FQV        -0.1505
     13 O13        -4.2150    1.9480   86.5200 O.2       1 FQV        -0.1505
     14 S10        -2.7760    1.8690   86.6260 S.o2      1 FQV         0.0659
     15 SE5        -0.6300    6.6820   82.9410 Se        1 FQV        -4.0000
     16 H1         -3.9937    4.2114   85.5875 H         1 FQV         0.0637
     17 H2         -0.1371    2.3837   85.5252 H         1 FQV         0.0637
     18 H3         -3.1628    6.0355   84.1834 H         1 FQV         0.0624
     19 H4          0.6965    4.2219   84.1226 H         1 FQV         0.0624
     20 H5          1.9318   10.2615   86.3634 H         1 FQV         0.0362
     21 H6          1.2527   11.0717   84.9112 H         1 FQV         0.0362
     22 H7          2.9965   10.6444   84.9684 H         1 FQV         0.0362
     23 H8          1.4106    5.9143   84.1455 H         1 FQV         0.0407
     24 H9          1.8334    6.6707   82.5721 H         1 FQV         0.0407
     25 H10        -2.4710   -0.4182   86.3290 H         1 FQV         0.1635
     26 H11        -1.6547    0.5046   85.1115 H         1 FQV         0.1635
@<TRIPOS>BOND
     1    2    1 3  
     2    1    9 1  
     3   10    2 1  
     4    5    3 ar 
     5    3    7 ar 
     6    6    4 ar 
     7    4    7 ar 
     8    8    5 ar 
     9    8    6 ar 
    10    7   14 1  
    11   15    8 1  
    12   10   15 1  
    13   14   11 am 
    14   14   12 2  
    15   14   13 2  
    16    3   16 1  
    17    4   17 1  
    18    5   18 1  
    19    6   19 1  
    20    9   20 1  
    21    9   21 1  
    22    9   22 1  
    23   10   23 1  
    24   10   24 1  
    25   11   25 1  
    26   11   26 1  
@<TRIPOS>SUBSTRUCTURE
     1 FQV         1

