### 
### Created by X-TOOL on Wed Jan  1 15:39:38 2020
### 

@<TRIPOS>MOLECULE
6hwz_ligand
   13    13     1     0     0
SMALL
GAST_HUCK


@<TRIPOS>ATOM
      1 SE        -16.0810   33.8750   40.2130 Se        1 GXE        -4.0000
      2 C         -16.9940   35.1880   40.6610 C.ar      1 GXE        -0.0179
      3 C1        -17.5630   36.0890   39.7490 C.ar      1 GXE        -0.0540
      4 C2        -18.3510   37.1880   40.1900 C.ar      1 GXE        -0.0612
      5 C3        -18.5670   37.4510   41.5460 C.ar      1 GXE        -0.0617
      6 C4        -17.9990   36.5770   42.4770 C.ar      1 GXE        -0.0612
      7 C5        -17.2550   35.4590   42.0210 C.ar      1 GXE        -0.0540
      8 H5        -17.7486   32.7480   40.1175 H         1 GXE         0.0000
      9 H6        -17.3990   35.9450   38.6872 H         1 GXE         0.0624
     10 H7        -18.7984   37.8427   39.4509 H         1 GXE         0.0618
     11 H8        -19.1552   38.3040   41.8645 H         1 GXE         0.0618
     12 H9        -18.1261   36.7522   43.5392 H         1 GXE         0.0618
     13 H10       -16.8633   34.7713   42.7618 H         1 GXE         0.0624
@<TRIPOS>BOND
     1    1    2 1  
     2    2    3 ar 
     3    2    7 ar 
     4    3    4 ar 
     5    4    5 ar 
     6    5    6 ar 
     7    6    7 ar 
     8    1    8 1  
     9    3    9 1  
    10    4   10 1  
    11    5   11 1  
    12    6   12 1  
    13    7   13 1  
@<TRIPOS>SUBSTRUCTURE
     1 GXE         1

