### 
### Created by X-TOOL on Wed Jan  1 15:39:36 2020
### 

@<TRIPOS>MOLECULE
6hx5_ligand
   13    13     1     0     0
SMALL
GAST_HUCK


@<TRIPOS>ATOM
      1 SE         -4.9330   -0.0780   16.3220 Se        1 GXE        -4.0000
      2 C          -5.4300    1.5020   16.0820 C.ar      1 GXE        -0.0179
      3 C1         -6.4200    2.1590   16.8210 C.ar      1 GXE        -0.0540
      4 C2         -6.7720    3.4960   16.5480 C.ar      1 GXE        -0.0612
      5 C3         -6.2620    4.2370   15.4890 C.ar      1 GXE        -0.0617
      6 C4         -5.3200    3.6320   14.7120 C.ar      1 GXE        -0.0612
      7 C5         -4.9260    2.3140   15.0200 C.ar      1 GXE        -0.0540
      8 H1         -6.1588   -0.2216   17.9148 H         1 GXE         0.0000
      9 H6         -6.9264    1.6289   17.6195 H         1 GXE         0.0624
     10 H7         -7.4863    3.9771   17.2063 H         1 GXE         0.0618
     11 H8         -6.5975    5.2484   15.2903 H         1 GXE         0.0618
     12 H9         -4.8808    4.1558   13.8707 H         1 GXE         0.0618
     13 H10        -4.1643    1.8723   14.3877 H         1 GXE         0.0624
@<TRIPOS>BOND
     1    1    2 1  
     2    2    3 ar 
     3    2    7 ar 
     4    3    4 ar 
     5    4    5 ar 
     6    5    6 ar 
     7    6    7 ar 
     8    1    8 1  
     9    3    9 1  
    10    4   10 1  
    11    5   11 1  
    12    6   12 1  
    13    7   13 1  
@<TRIPOS>SUBSTRUCTURE
     1 GXE         1

